@<TRIPOS>MOLECULE
../ATP/pdb_mol2/1abiA_DPN_aux_trans.pdb
 119 119 0 0 0
SMALL
GASTEIGER

@<TRIPOS>ATOM
      1  N          0.1610    0.9310   -0.6430 N.2     2  PRO2       -0.2584
      2  CA        -0.3150   -0.4690   -0.6660 C.3     2  PRO2        0.1895
      3  C         -1.7320   -0.4370   -0.0750 C.2     2  PRO2        0.2359
      4  O         -1.9960    0.5110    0.6850 O.2     2  PRO2       -0.2858
      5  CB         0.7210   -1.2750    0.0540 C.2     2  PRO2        0.0071
      6  CG         1.7800   -0.3340    0.5100 C.2     2  PRO2        0.0180
      7  CD         1.3800    1.0730    0.1340 C.2     2  PRO2        0.0937
      8  N         -2.6840   -2.9440    2.3770 N.3     4  GLY4       -0.1210
      9  CA        -1.9930   -2.7530    3.6900 C.3     4  GLY4        0.1956
     10  C         -2.4520   -4.0060    4.4790 C.2     4  GLY4        0.2612
     11  O         -1.9430   -5.1140    4.1860 O.2     4  GLY4       -0.2717
     12  N         -3.4080   -3.7590    5.3470 N.am    5  GLY5       -0.1942
     13  CA        -4.0570   -4.7590    6.2140 C.3     5  GLY5        0.2014
     14  C         -5.3080   -4.0460    6.7720 C.2     5  GLY5        0.2639
     15  O         -5.5510   -2.8890    6.3630 O.2     5  GLY5       -0.2714
     16  N         -6.0300   -4.7130    7.6420 N.am    6  GLY6       -0.1939
     17  CA        -7.2570   -4.1600    8.2920 C.3     6  GLY6        0.2014
     18  C         -7.6320   -5.1020    9.4470 C.2     6  GLY6        0.2639
     19  O         -6.9360   -6.1340    9.6400 O.2     6  GLY6       -0.2714
     20  N         -8.6660   -4.7930   10.1920 N.am    7  GLY7       -0.1939
     21  CA        -9.2080   -5.5880   11.3010 C.3     7  GLY7        0.2014
     22  C         -8.2380   -6.1510   12.3220 C.2     7  GLY7        0.2639
     23  O         -7.8480   -7.3420   12.3040 O.2     7  GLY7       -0.2714
     24  N         -7.9170   -5.3040   13.2920 N.am    8  GLY8       -0.1939
     25  CA        -6.9810   -5.5910   14.3740 C.3     8  GLY8        0.2014
     26  C         -7.6060   -5.5980   15.7560 C.2     8  GLY8        0.2639
     27  O         -7.1430   -6.3320   16.6490 O.2     8  GLY8       -0.2714
     28  N         -8.6260   -4.7760   15.9070 N.am   53  ASN53      -0.1958
     29  CA        -9.3570   -4.6730   17.1850 C.3    53  ASN53       0.1819
     30  C         -9.9190   -6.0640   17.5080 C.2    53  ASN53       0.2622
     31  O        -10.7910   -6.5710   16.7910 O.2    53  ASN53      -0.2715
     32  CB       -10.4130   -3.5910   17.1250 C.3    53  ASN53       0.1195
     33  CG       -10.9500   -3.3140   15.7350 C.2    53  ASN53       0.2630
     34  OD1      -10.2680   -2.6870   14.9090 O.2    53  ASN53      -0.2716
     35  ND2      -12.1780   -3.7580   15.4760 N.am   53  ASN53      -0.0877
     36  N         -9.3850   -6.6160   18.5750 N.am   54  GLY54      -0.1940
     37  CA        -9.7500   -7.9360   19.0730 C.3    54  GLY54       0.2014
     38  C        -11.1940   -8.3030   18.7860 C.2    54  GLY54       0.2638
     39  O        -11.5450   -9.4920   19.0450 O.2    54  GLY54      -0.2714
     40  N        -11.9860   -7.3720   18.2900 N.am   55  ASP55      -0.1971
     41  CA       -13.4330   -7.6120   18.0660 C.3    55  ASP55       0.1709
     42  C        -13.8320   -8.9800   17.5210 C.2    55  ASP55       0.2293
     43  O        -15.0290   -9.3050   17.3560 O.2    55  ASP55      -0.2864
     44  CB       -13.9490   -6.3790   17.3220 C.3    55  ASP55       0.1436
     45  CG       -14.3090   -6.6570   15.8780 C.2    55  ASP55       0.3671
     46  OD1      -13.3960   -6.9560   15.0830 O.co2  55  ASP55      -0.2456
     47  OD2      -15.5350   -6.5680   15.6150 O.co2  55  ASP55      -0.2456
     48  N        -13.8880  -13.2090   17.5390 N.3    57  GLU57      -0.1231
     49  CA       -14.2200  -14.3080   18.4410 C.3    57  GLU57       0.1699
     50  C        -13.0440  -15.2770   18.4860 C.2    57  GLU57       0.2592
     51  O        -12.3930  -15.6280   17.4780 O.2    57  GLU57      -0.2718
     52  CB       -15.4130  -15.0390   17.9500 C.3    57  GLU57       0.0402
     53  CG       -15.9850  -16.1430   18.8110 C.3    57  GLU57       0.1161
     54  CD       -17.3350  -16.5460   18.2350 C.2    57  GLU57       0.3649
     55  OE1      -18.0030  -15.7940   17.5500 O.co2  57  GLU57      -0.2457
     56  OE2      -17.5430  -17.7160   18.5380 O.co2  57  GLU57      -0.2457
     57  N        -12.7320  -15.7080   19.6930 N.am   58  GLU58      -0.1966
     58  CA       -11.5890  -16.6040   19.9320 C.3    58  GLU58       0.1733
     59  C        -11.7190  -17.8060   19.0000 C.2    58  GLU58       0.2616
     60  O        -12.8650  -18.2610   18.8340 O.2    58  GLU58      -0.2715
     61  CB       -11.4980  -17.0940   21.3650 C.3    58  GLU58       0.0429
     62  CG       -10.4520  -18.1360   21.7280 C.3    58  GLU58       0.1163
     63  CD        -9.0710  -17.6740   22.1110 C.2    58  GLU58       0.3649
     64  OE1       -8.9750  -16.4370   22.3000 O.co2  58  GLU58      -0.2457
     65  OE2       -8.1190  -18.4510   22.2480 O.co2  58  GLU58      -0.2457
     66  N        -10.5700  -18.2350   18.4620 N.am   59  ILE59      -0.1964
     67  CA       -10.6290  -19.4450   17.6230 C.3    59  ILE59       0.1715
     68  C        -10.0890  -20.6050   18.4860 C.2    59  ILE59       0.2496
     69  O         -9.2920  -20.3590   19.4170 O.2    59  ILE59      -0.2727
     70  CB        -9.9460  -19.3810   16.2210 C.3    59  ILE59       0.0289
     71  CG1       -8.3960  -19.4160   16.4090 C.3    59  ILE59       0.0022
     72  CG2      -10.4890  -18.2400   15.3200 C.3    59  ILE59       0.0023
     73  CD1       -7.6400  -18.4930   15.4330 C.3    59  ILE59       0.0001
     74  N        -10.5060  -21.8050   18.1070 N.am   60  PRO60      -0.2490
     75  CA       -10.1380  -23.0340   18.8000 C.3    60  PRO60       0.1619
     76  C         -8.6400  -23.3310   18.8650 C.2    60  PRO60       0.2605
     77  O         -7.8750  -23.3020   17.8910 O.2    60  PRO60      -0.2715
     78  CB       -10.9140  -24.1430   18.0870 C.3    60  PRO60       0.0570
     79  CG       -11.7020  -23.5440   16.9650 C.2    60  PRO60      -0.0077
     80  CD       -11.4390  -22.0490   16.9790 C.2    60  PRO60       0.0634
     81  N         -8.2470  -23.6690   20.1000 N.am   61  GLU61      -0.1964
     82  CA        -6.8800  -23.9950   20.4820 C.3    61  GLU61       0.1733
     83  C         -6.2660  -24.9420   19.4450 C.2    61  GLU61       0.2619
     84  O         -5.0780  -24.8560   19.0790 O.2    61  GLU61      -0.2715
     85  CB        -6.7670  -24.6730   21.8400 C.3    61  GLU61       0.0429
     86  CG        -7.2210  -23.9290   23.0850 C.3    61  GLU61       0.1163
     87  CD        -8.6000  -24.2360   23.5840 C.2    61  GLU61       0.3649
     88  OE1       -9.0060  -25.3600   23.8270 O.co2  61  GLU61      -0.2457
     89  OE2       -9.2940  -23.2060   23.7280 O.co2  61  GLU61      -0.2457
     90  N         -7.1230  -25.8890   19.0740 N.am   62  GLU62      -0.1918
     91  CA        -6.6640  -26.8740   18.0570 C.3    62  GLU62       0.1949
     92  C         -6.0890  -25.9610   16.9650 C.2    62  GLU62       0.2659
     93  O         -4.8960  -25.6460   16.8960 O.2    62  GLU62      -0.2711
     94  CB        -7.7700  -27.7210   17.4810 C.2    62  GLU62       0.0111
     95  CG        -7.4410  -28.6960   16.3550 C.2    62  GLU62       0.0838
     96  CD        -8.5690  -29.5500   15.8600 C.2    62  GLU62       0.3877
     97  OE1       -9.6550  -29.2710   16.4130 O.co2  62  GLU62      -0.2406
     98  OE2       -8.4490  -30.4210   15.0150 O.co2  62  GLU62      -0.2406
     99  N         -7.0520  -25.4940   16.1990 N.am   63  TYR63      -0.1957
    100  CA        -6.8960  -24.5800   15.0550 C.3    63  TYR63       0.1771
    101  C         -5.5710  -23.8490   15.0640 C.2    63  TYR63       0.2620
    102  O         -4.8330  -23.9200   14.0510 O.2    63  TYR63      -0.2715
    103  CB        -8.2060  -23.7500   14.9690 C.3    63  TYR63       0.0574
    104  CG        -9.1430  -24.3560   13.9370 C.ar   63  TYR63      -0.0198
    105  CD1       -8.8670  -25.5640   13.2600 C.ar   63  TYR63      -0.0009
    106  CD2      -10.3260  -23.6890   13.5980 C.ar   63  TYR63      -0.0009
    107  CE1       -9.7140  -26.0650   12.2690 C.ar   63  TYR63       0.0417
    108  CE2      -11.2050  -24.1820   12.6170 C.ar   63  TYR63       0.0417
    109  CZ       -10.8860  -25.3690   11.9340 C.ar   63  TYR63       0.1957
    110  OH       -11.8000  -25.7810   10.9970 O.3    63  TYR63      -0.2866
    111  N         -5.1950  -23.2580   16.1600 N.am   64  LEU64      -0.1941
    112  CA        -4.1020  -22.4600   16.6070 C.3    64  LEU64       0.1978
    113  C         -2.7440  -23.0160   17.0300 C.2    64  LEU64       0.3842
    114  O         -2.5940  -24.2350   17.3500 O.co2  64  LEU64      -0.2437
    115  CB        -4.7650  -21.7610   17.8530 C.3    64  LEU64       0.0333
    116  CG        -4.3490  -20.3150   18.0550 C.3    64  LEU64       0.0023
    117  CD1       -2.8380  -20.1670   17.9400 C.3    64  LEU64       0.0001
    118  CD2       -5.0720  -19.4710   16.9870 C.3    64  LEU64       0.0001
    119  OXT       -1.7530  -22.2140   17.0880 O.co2  64  LEU64      -0.2437
@<TRIPOS>BOND
     1     2     1    1
     2     2     3    1
     3     2     5    1
     4     1     7    2
     5     3     4    2
     6     5     6    2
     7     7     6    1
     8     8     9    1
     9     9    10    1
    10    11    10    2
    11    10    12   am
    12    12    13    1
    13    13    14    1
    14    15    14    2
    15    14    16   am
    16    16    17    1
    17    17    18    1
    18    18    19    2
    19    18    20   am
    20    20    21    1
    21   110   109    1
    22    21    22    1
    23   109   107   ar
    24   109   108   ar
    25   107   105   ar
    26    23    22    2
    27    22    24   am
    28   108   106   ar
    29   105   104   ar
    30    24    25    1
    31   106   104   ar
    32   104   103    1
    33   102   101    2
    34    25    26    1
    35    34    33    2
    36   103   100    1
    37    98    96   ar
    38   100   101    1
    39   100    99    1
    40   101   111   am
    41    46    45   ar
    42    72    70    1
    43    73    71    1
    44    35    33   am
    45    47    45   ar
    46    33    32    1
    47    26    28   am
    48    26    27    2
    49    96    95    1
    50    96    97   ar
    51    45    44    1
    52    28    29    1
    53   111   112    1
    54    99    92   am
    55    70    71    1
    56    70    67    1
    57    95    94    2
    58   112   113    1
    59   112   115    1
    60    31    30    2
    61    93    92    2
    62    92    91    1
    63    79    80    2
    64    79    78    1
    65    80    74    1
    66   118   116    1
    67   113   119   ar
    68   113   114   ar
    69    32    29    1
    70    29    30    1
    71    44    41    1
    72    43    42    2
    73    51    50    2
    74    94    91    1
    75    30    36   am
    76    42    41    1
    77    48    49    1
    78    55    54   ar
    79    67    66    1
    80    67    68    1
    81   115   116    1
    82    77    76    2
    83   117   116    1
    84    52    49    1
    85    52    53    1
    86    91    90    1
    87    41    40    1
    88    78    75    1
    89    74    68   am
    90    74    75    1
    91    54    56   ar
    92    54    53    1
    93    40    38   am
    94    49    50    1
    95    66    59   am
    96    68    69    2
    97    50    57   am
    98    36    37    1
    99    38    39    2
   100    38    37    1
   101    75    76    1
   102    60    59    2
   103    76    81   am
   104    59    58    1
   105    90    83   am
   106    84    83    2
   107    83    82    1
   108    57    58    1
   109    58    61    1
   110    81    82    1
   111    82    85    1
   112    61    62    1
   113    62    63    1
   114    85    86    1
   115    63    65   ar
   116    63    64   ar
   117    86    87    1
   118    87    89   ar
   119    87    88   ar
