@<TRIPOS>MOLECULE
../ATP/pdb_mol2/1abiA_HMR_aux_trans.pdb
 119 119 0 0 0
SMALL
GASTEIGER

@<TRIPOS>ATOM
      1  N          4.7680    0.7730    0.1450 N.2     2  PRO2       -0.2584
      2  CA         3.8460    0.1740   -0.8450 C.3     2  PRO2        0.1895
      3  C          2.7100    1.1920   -1.0250 C.2     2  PRO2        0.2359
      4  O          2.5100    1.9740   -0.0790 O.2     2  PRO2       -0.2858
      5  CB         3.4890   -1.1810   -0.3180 C.2     2  PRO2        0.0071
      6  CG         4.1870   -1.3510    0.9850 C.2     2  PRO2        0.0180
      7  CD         4.9330   -0.0780    1.3100 C.2     2  PRO2        0.0937
      8  N         -0.7280    0.0190   -1.0610 N.3     4  GLY4       -0.1210
      9  CA        -1.1880   -0.4510    0.2830 C.3     4  GLY4        0.1956
     10  C         -2.5940   -1.0190   -0.0390 C.2     4  GLY4        0.2612
     11  O         -2.6690   -2.1220   -0.6310 O.2     4  GLY4       -0.2717
     12  N         -3.5760   -0.2130    0.2980 N.am    5  GLY5       -0.1942
     13  CA        -5.0110   -0.4760    0.0860 C.3     5  GLY5        0.2014
     14  C         -5.7020    0.8830    0.3280 C.2     5  GLY5        0.2639
     15  O         -4.9740    1.8740    0.5620 O.2     5  GLY5       -0.2714
     16  N         -7.0140    0.8990    0.2690 N.am    6  GLY6       -0.1939
     17  CA        -7.8350    2.1260    0.4990 C.3     6  GLY6        0.2014
     18  C         -9.2990    1.6810    0.6440 C.2     6  GLY6        0.2639
     19  O         -9.5780    0.4590    0.5230 O.2     6  GLY6       -0.2714
     20  N        -10.2060    2.5960    0.8930 N.am    7  GLY7       -0.1939
     21  CA       -11.6520    2.3760    1.0130 C.3     7  GLY7        0.2014
     22  C        -12.1340    1.2130    1.8590 C.2     7  GLY7        0.2639
     23  O        -12.5040    0.1210    1.3660 O.2     7  GLY7       -0.2714
     24  N        -12.2250    1.4830    3.1550 N.am    8  GLY8       -0.1939
     25  CA       -12.6310    0.5270    4.1800 C.3     8  GLY8        0.2014
     26  C        -13.9230    0.8820    4.8900 C.2     8  GLY8        0.2639
     27  O        -14.6650   -0.0170    5.3290 O.2     8  GLY8       -0.2714
     28  N        -14.1570    2.1760    5.0010 N.am   53  ASN53      -0.1958
     29  CA       -15.3780    2.6910    5.6500 C.3    53  ASN53       0.1819
     30  C        -16.5810    2.1370    4.8750 C.2    53  ASN53       0.2622
     31  O        -16.7860    2.4820    3.7040 O.2    53  ASN53      -0.2715
     32  CB       -15.3550    4.2010    5.7370 C.3    53  ASN53       0.1195
     33  CG       -14.5310    4.8800    4.6610 C.2    53  ASN53       0.2630
     34  OD1      -13.2910    4.8640    4.7120 O.2    53  ASN53      -0.2716
     35  ND2      -15.2110    5.4970    3.6970 N.am   53  ASN53      -0.0877
     36  N        -17.3170    1.2970    5.5680 N.am   54  GLY54      -0.1940
     37  CA       -18.5040    0.6350    5.0420 C.3    54  GLY54       0.2014
     38  C        -19.2390    1.4640    4.0060 C.2    54  GLY54       0.2638
     39  O        -20.1880    0.8970    3.3880 O.2    54  GLY54      -0.2714
     40  N        -18.8490    2.7090    3.8140 N.am   55  ASP55      -0.1971
     41  CA       -19.5670    3.6220    2.8900 C.3    55  ASP55       0.1709
     42  C        -20.0690    3.0260    1.5780 C.2    55  ASP55       0.2293
     43  O        -20.7390    3.6930    0.7600 O.2    55  ASP55      -0.2864
     44  CB       -18.7110    4.8870    2.8070 C.3    55  ASP55       0.1436
     45  CG       -18.0300    5.0640    1.4670 C.2    55  ASP55       0.3671
     46  OD1      -17.1470    4.2490    1.1350 O.co2  55  ASP55      -0.2456
     47  OD2      -18.4430    6.0410    0.7910 O.co2  55  ASP55      -0.2456
     48  N        -22.1910    0.2000   -0.7450 N.3    57  GLU57      -0.1231
     49  CA       -23.5340   -0.3650   -0.8460 C.3    57  GLU57       0.1699
     50  C        -23.4280   -1.8860   -0.8290 C.2    57  GLU57       0.2592
     51  O        -22.5590   -2.5290   -1.4570 O.2    57  GLU57      -0.2718
     52  CB       -24.1750    0.0480   -2.1190 C.3    57  GLU57       0.0402
     53  CG       -25.6160   -0.3410   -2.3570 C.3    57  GLU57       0.1161
     54  CD       -26.1190    0.4140   -3.5790 C.2    57  GLU57       0.3649
     55  OE1      -25.6200    1.4600   -3.9490 O.co2  57  GLU57      -0.2457
     56  OE2      -27.0140   -0.2480   -4.0940 O.co2  57  GLU57      -0.2457
     57  N        -24.3180   -2.4910   -0.0670 N.am   58  GLU58      -0.1966
     58  CA       -24.3280   -3.9510    0.1140 C.3    58  GLU58       0.1733
     59  C        -24.3380   -4.6050   -1.2660 C.2    58  GLU58       0.2616
     60  O        -25.0450   -4.0620   -2.1340 O.2    58  GLU58      -0.2715
     61  CB       -25.5200   -4.4500    0.9090 C.3    58  GLU58       0.0429
     62  CG       -25.7390   -5.9480    1.0550 C.3    58  GLU58       0.1163
     63  CD       -25.0570   -6.6730    2.1850 C.2    58  GLU58       0.3649
     64  OE1      -24.5300   -5.9180    3.0390 O.co2  58  GLU58      -0.2457
     65  OE2      -25.0370   -7.9070    2.2750 O.co2  58  GLU58      -0.2457
     66  N        -23.5740   -5.6990   -1.3820 N.am   59  ILE59      -0.1964
     67  CA       -23.6160   -6.4170   -2.6690 C.3    59  ILE59       0.1715
     68  C        -24.5060   -7.6590   -2.4510 C.2    59  ILE59       0.2496
     69  O        -24.6170   -8.1410   -1.3030 O.2    59  ILE59      -0.2727
     70  CB       -22.2510   -6.7750   -3.3360 C.3    59  ILE59       0.0289
     71  CG1      -21.5900   -7.9460   -2.5430 C.3    59  ILE59       0.0022
     72  CG2      -21.3460   -5.5420   -3.5930 C.3    59  ILE59       0.0023
     73  CD1      -20.0610   -7.8060   -2.4050 C.3    59  ILE59       0.0001
     74  N        -25.0510   -8.1400   -3.5590 N.am   60  PRO60      -0.2490
     75  CA       -25.9450   -9.2910   -3.5750 C.3    60  PRO60       0.1619
     76  C        -25.3550  -10.5930   -3.0360 C.2    60  PRO60       0.2605
     77  O        -24.2630  -11.0650   -3.3810 O.2    60  PRO60      -0.2715
     78  CB       -26.4000   -9.4240   -5.0310 C.3    60  PRO60       0.0570
     79  CG       -25.7350   -8.3620   -5.8490 C.2    60  PRO60      -0.0077
     80  CD       -24.8720   -7.5430   -4.9060 C.2    60  PRO60       0.0634
     81  N        -26.1760  -11.1970   -2.1670 N.am   61  GLU61      -0.1964
     82  CA       -25.8890  -12.4450   -1.4750 C.3    61  GLU61       0.1733
     83  C        -25.3120  -13.4640   -2.4640 C.2    61  GLU61       0.2619
     84  O        -24.3940  -14.2490   -2.1600 O.2    61  GLU61      -0.2715
     85  CB       -27.1090  -13.0830   -0.8270 C.3    61  GLU61       0.0429
     86  CG       -27.8470  -12.3340    0.2710 C.3    61  GLU61       0.1163
     87  CD       -29.0660  -11.5670   -0.1440 C.2    61  GLU61       0.3649
     88  OE1      -30.0010  -12.0490   -0.7620 O.co2  61  GLU61      -0.2457
     89  OE2      -29.0220  -10.3720    0.2190 O.co2  61  GLU61      -0.2457
     90  N        -25.9670  -13.4510   -3.6220 N.am   62  GLU62      -0.1918
     91  CA       -25.5040  -14.3840   -4.6860 C.3    62  GLU62       0.1949
     92  C        -23.9930  -14.1090   -4.7160 C.2    62  GLU62       0.2659
     93  O        -23.1670  -14.7640   -4.0700 O.2    62  GLU62      -0.2711
     94  CB       -26.0970  -14.1070   -6.0450 C.2    62  GLU62       0.0111
     95  CG       -25.6200  -14.9290   -7.2370 C.2    62  GLU62       0.0838
     96  CD       -26.2850  -14.6470   -8.5510 C.2    62  GLU62       0.3877
     97  OE1      -27.1000  -13.7020   -8.4780 O.co2  62  GLU62      -0.2406
     98  OE2      -26.0620  -15.2650   -9.5780 O.co2  62  GLU62      -0.2406
     99  N        -23.7330  -13.0340   -5.4280 N.am   63  TYR63      -0.1957
    100  CA       -22.4050  -12.4480   -5.6770 C.3    63  TYR63       0.1771
    101  C        -21.3600  -12.9240   -4.6910 C.2    63  TYR63       0.2620
    102  O        -20.3030  -13.4410   -5.1310 O.2    63  TYR63      -0.2715
    103  CB       -22.6210  -10.9210   -5.8580 C.3    63  TYR63       0.0574
    104  CG       -22.6900  -10.5730   -7.3360 C.ar   63  TYR63      -0.0198
    105  CD1      -22.6680  -11.5450   -8.3590 C.ar   63  TYR63      -0.0009
    106  CD2      -22.7430   -9.2310   -7.7300 C.ar   63  TYR63      -0.0009
    107  CE1      -22.6670  -11.1950   -9.7110 C.ar   63  TYR63       0.0417
    108  CE2      -22.7610   -8.8520   -9.0840 C.ar   63  TYR63       0.0417
    109  CZ       -22.7030   -9.8420  -10.0820 C.ar   63  TYR63       0.1957
    110  OH       -22.7300   -9.3860  -11.3760 O.3    63  TYR63      -0.2866
    111  N        -21.6350  -12.8760   -3.4220 N.am   64  LEU64      -0.1941
    112  CA       -20.9830  -13.1670   -2.1880 C.3    64  LEU64       0.1978
    113  C        -20.8430  -14.5680   -1.5960 C.2    64  LEU64       0.3842
    114  O        -21.5870  -15.5260   -1.9680 O.co2  64  LEU64      -0.2437
    115  CB       -21.8540  -12.2950   -1.2060 C.3    64  LEU64       0.0333
    116  CG       -21.0650  -11.6340   -0.0890 C.3    64  LEU64       0.0023
    117  CD1      -20.1230  -12.6320    0.5690 C.3    64  LEU64       0.0001
    118  CD2      -20.2840  -10.4580   -0.7070 C.3    64  LEU64       0.0001
    119  OXT      -19.9710  -14.7530   -0.6830 O.co2  64  LEU64      -0.2437
@<TRIPOS>BOND
     1   110   109    1
     2   109   107   ar
     3   109   108   ar
     4   107   105   ar
     5    98    96   ar
     6   108   106   ar
     7    96    97   ar
     8    96    95    1
     9   105   104   ar
    10   106   104   ar
    11   104   103    1
    12    95    94    2
    13    94    91    1
    14   103   100    1
    15    79    78    1
    16    79    80    2
    17   100    99    1
    18   100   101    1
    19    99    92   am
    20   102   101    2
    21    78    75    1
    22    80    74    1
    23    92    91    1
    24    92    93    2
    25   101   111   am
    26    91    90    1
    27    56    54   ar
    28    55    54   ar
    29    90    83   am
    30    72    70    1
    31    54    53    1
    32    75    74    1
    33    75    76    1
    34    74    68   am
    35   111   112    1
    36    77    76    2
    37    70    67    1
    38    70    71    1
    39    76    81   am
    40    67    68    1
    41    67    66    1
    42    71    73    1
    43    83    84    2
    44    83    82    1
    45    68    69    2
    46    53    52    1
    47   112   113    1
    48   112   115    1
    49    81    82    1
    50    60    59    2
    51    52    49    1
    52   114   113   ar
    53   113   119   ar
    54    82    85    1
    55    51    50    2
    56    66    59   am
    57    59    58    1
    58   115   116    1
    59     8     9    1
    60     3     2    1
    61     3     4    2
    62    49    50    1
    63    49    48    1
    64     2     5    1
    65     2     1    1
    66    50    57   am
    67    85    86    1
    68    88    87   ar
    69   118   116    1
    70    11    10    2
    71     5     6    2
    72    87    89   ar
    73    87    86    1
    74   116   117    1
    75    57    58    1
    76    10     9    1
    77    10    12   am
    78    13    12    1
    79    13    14    1
    80    58    61    1
    81     1     7    2
    82    16    14   am
    83    16    17    1
    84    14    15    2
    85    17    18    1
    86    19    18    2
    87    18    20   am
    88    43    42    2
    89    47    45   ar
    90    20    21    1
    91    61    62    1
    92     6     7    1
    93    21    22    1
    94    62    63    1
    95    46    45   ar
    96    23    22    2
    97    45    44    1
    98    42    41    1
    99    22    24   am
   100    63    65   ar
   101    63    64   ar
   102    44    41    1
   103    41    40    1
   104    24    25    1
   105    39    38    2
   106    35    33   am
   107    31    30    2
   108    40    38   am
   109    38    37    1
   110    25    26    1
   111    33    34    2
   112    33    32    1
   113    30    36   am
   114    30    29    1
   115    26    28   am
   116    26    27    2
   117    28    29    1
   118    37    36    1
   119    29    32    1
