@<TRIPOS>MOLECULE
../ATP/pdb_mol2/1hneI_ALV_aux_trans.pdb
 17 17 0 0 0
SMALL
GASTEIGER

@<TRIPOS>ATOM
      1  N         -5.3510   -3.2490    1.6740 N.3     2  ALA2       -0.1231
      2  CA        -4.4110   -2.2430    2.1880 C.3     2  ALA2        0.1694
      3  C         -3.4680   -2.0230    1.0170 C.2     2  ALA2        0.2592
      4  O         -3.1370   -3.0260    0.3240 O.2     2  ALA2       -0.2718
      5  CB        -3.7140   -2.8680    3.3740 C.3     2  ALA2        0.0304
      6  N         -3.0360   -0.8160    0.7800 N.am    3  ALA3       -0.1966
      7  CA        -2.1200   -0.4840   -0.3210 C.3     3  ALA3        0.1713
      8  C         -0.9280    0.2510    0.3520 C.2     3  ALA3        0.2458
      9  O         -1.1800    1.2800    0.9960 O.2     3  ALA3       -0.2730
     10  CB        -2.8160    0.4830   -1.2690 C.3     3  ALA3        0.0333
     11  N          0.2250   -0.3490    0.1850 N.am    4  PRO4       -0.2727
     12  CA         1.4500    0.2920    0.7850 C.3     4  PRO4        0.1402
     13  C          1.6560    1.6110    0.1290 C.2     4  PRO4        0.2269
     14  O          1.6220    1.7080   -1.1390 O.2     4  PRO4       -0.2865
     15  CB         2.5220   -0.7630    0.5990 C.3     4  PRO4        0.0296
     16  CG         2.0510   -1.6570   -0.5550 C.3     4  PRO4        0.0237
     17  CD         0.5530   -1.5540   -0.5420 C.3     4  PRO4        0.0939
@<TRIPOS>BOND
     1    10     7    1
     2    14    13    2
     3    16    17    1
     4    16    15    1
     5    17    11    1
     6     7     8    1
     7     7     6    1
     8    13    12    1
     9    11     8   am
    10    11    12    1
    11     4     3    2
    12     8     9    2
    13    15    12    1
    14     6     3   am
    15     3     2    1
    16     1     2    1
    17     2     5    1
